data_global
_cell_length_a 11.9925
_cell_length_b 11.9925
_cell_length_c 11.9925
_cell_angle_alpha 60
_cell_angle_beta 60
_cell_angle_gamma 60
_symmetry_space_group_name_H-M 'P -1'
loop_
_symmetry_equiv_pos_as_xyz
  'x,y,z'
loop_
_atom_site_label
_atom_site_fract_x
_atom_site_fract_y
_atom_site_fract_z
Ga -0.0169933 -0.0082427 -0.00824266
Ga -0.00337568 -0.0193535 0.321365
Ga -0.0163415 -0.0096713 0.657043
Ga -0.00337541 0.321365 -0.0193536
Ga -0.0260564 0.321701 0.321701
Ga -0.0224084 0.32351 0.659064
Ga -0.0163415 0.657043 -0.00967131
Ga -0.0224084 0.659064 0.323511
Ga -0.0142965 0.655795 0.655795
Ga 0.322793 -0.0114939 -0.0114937
Ga 0.318195 -0.00814739 0.324991
Ga 0.315098 -0.0081112 0.657757
Ga 0.318195 0.324991 -0.00814731
Ga 0.289477 0.326924 0.326924
Ga 0.319137 0.320084 0.660829
Ga 0.315098 0.657756 -0.00811104
Ga 0.319137 0.660829 0.320084
Ga 0.316764 0.657647 0.657647
Ga 0.650479 -0.00731177 -0.00731183
Ga 0.648256 -0.00252266 0.325819
Ga 0.655791 -0.0114877 0.655843
Ga 0.648256 0.325819 -0.00252276
Ga 0.682437 0.307497 0.307496
Ga 0.649919 0.322775 0.658695
Ga 0.655792 0.655844 -0.0114881
Ga 0.649919 0.658695 0.322775
Ga 0.649349 0.656826 0.656826
As 0.0734845 0.0716094 0.0716095
As 0.0684986 0.0721406 0.406927
As 0.0653649 0.0741523 0.741269
As 0.0684987 0.406927 0.0721406
As 0.0441829 0.409859 0.409859
As 0.0709822 0.405861 0.734352
As 0.0653649 0.741269 0.0741523
As 0.0709822 0.734352 0.405861
As 0.0674462 0.739693 0.739693
As 0.400382 0.0748987 0.0748987
As 0.39674 0.0782875 0.408886
As 0.405577 0.0719455 0.737945
As 0.39674 0.408886 0.0782877
As 0.353301 0.418527 0.418527
As 0.399638 0.407962 0.741351
As 0.405577 0.737944 0.0719456
As 0.399638 0.741351 0.407962
As 0.398781 0.741358 0.741358
As 0.733169 0.0761252 0.0761252
As 0.75083 0.0618242 0.407227
As 0.734141 0.0735296 0.741927
As 0.75083 0.407227 0.0618233
As 0.723955 0.408474 0.408474
As 0.72838 0.407256 0.74575
As 0.734141 0.741927 0.0735295
As 0.72838 0.74575 0.407256
As 0.736023 0.738829 0.738829
O 0.515241 0.322877 0.322878
