data_global
_cell_length_a 4
_cell_length_b 4
_cell_length_c 20
_cell_angle_alpha 90
_cell_angle_beta 90
_cell_angle_gamma 120
_symmetry_space_group_name_H-M 'P -1'
loop_
_symmetry_equiv_pos_as_xyz
  'x,y,z'
loop_
_atom_site_label
_atom_site_fract_x
_atom_site_fract_y
_atom_site_fract_z
Ge 3.64718e-32 1.18199e-32 0.251
Ge 0.333333 0.666667 0.249
